test_JLF/line.dss
Clear

New Circuit.TheveninEquivalent phases=3 basekv=13.8 bus1=K

// 3-ph Line
New Line.Line1 Phases=4 bus1=K.1.2.3.0 bus2=L.1.2.3.4 length=1 units=km  ! grounded at begining, connected to "4" at end.
~ Rmatrix=[0.19 | 0.06 0.19 | 0.06 0.06 0.19 | 0.06 0.06 0.06 0.25]        ! ohm/km
~ Xmatrix=[0.86 | 0.49 0.86 | 0.44 0.49 0.86 | 0.48 0.49 0.47 0.88]        ! ohm/km
~ Cmatrix=[9.34 | -2.21 9.93 | -0.99 -2.24 9.27 | -1.64 -1.83 -1.48 9.85]  ! nF/km

!New Line.Line1 bus1=BusPrim1 bus2=BusPrim2  length=100 phases=3 units=m linecode=OH-3X_477AAC_4/0AAACN enabled=TRUE



Solve
dump line.Line1 debug